14969
  -OEChem-01091721002D

176185  0     1  0  0  0  0  0999 V2000
    8.5062   -0.9754    0.0000 Cl  0  0  0  0  0  0  0  0  0  0  0  0
   10.3603   -3.8071    0.0000 Cl  0  0  0  0  0  0  0  0  0  0  0  0
    4.1760   -4.4754    0.0000 O   0  0  0  0  0  0  0  0  0  0  0  0
    5.9080   -4.4754    0.0000 O   0  0  0  0  0  0  0  0  0  0  0  0
    6.7741   -1.9754    0.0000 O   0  0  0  0  0  0  0  0  0  0  0  0
    2.3100   -5.9754    0.0000 O   0  0  0  0  0  0  0  0  0  0  0  0
    4.1760   -3.4754    0.0000 O   0  0  0  0  0  0  0  0  0  0  0  0
    7.6401   -3.4754    0.0000 O   0  0  0  0  0  0  0  0  0  0  0  0
    4.1760   -1.4754    0.0000 O   0  0  0  0  0  0  0  0  0  0  0  0
    5.0420    0.0246    0.0000 O   0  0  0  0  0  0  0  0  0  0  0  0
    7.6401   -1.4754    0.0000 O   0  0  0  0  0  0  0  0  0  0  0  0
    9.3721   -4.4754    0.0000 O   0  0  0  0  0  0  0  0  0  0  0  0
   12.8369   -1.4765    0.0000 O   0  0  0  0  0  0  0  0  0  0  0  0
    9.3722   -0.4754    0.0000 O   0  0  0  0  0  0  0  0  0  0  0  0
    6.9330    3.2317    0.0000 O   0  0  0  0  0  0  0  0  0  0  0  0
   12.4137   -7.3818    0.0000 O   0  0  0  0  0  0  0  0  0  0  0  0
   12.8417   -5.4754    0.0000 O   0  0  0  0  0  0  0  0  0  0  0  0
   10.2382    3.0246    0.0000 O   0  0  0  0  0  0  0  0  0  0  0  0
   14.5683   -7.4754    0.0000 O   0  0  0  0  0  0  0  0  0  0  0  0
    7.0919    4.4388    0.0000 O   0  0  0  0  0  0  0  0  0  0  0  0
   16.3004   -1.4754    0.0000 O   0  0  0  0  0  0  0  0  0  0  0  0
   12.1700    0.5070    0.0000 O   0  0  0  0  0  0  0  0  0  0  0  0
   17.1664   -1.9754    0.0000 O   0  0  0  0  0  0  0  0  0  0  0  0
   15.1401   -3.2686    0.0000 O   0  0  0  0  0  0  0  0  0  0  0  0
   13.8561   -3.8612    0.0000 O   0  0  0  0  0  0  0  0  0  0  0  0
   18.8984   -4.9755    0.0000 O   0  0  0  0  0  0  0  0  0  0  0  0
    3.3100   -6.9754    0.0000 N   0  0  0  0  0  0  0  0  0  0  0  0
   11.1042   -0.4754    0.0000 N   0  0  0  0  0  0  0  0  0  0  0  0
   11.9702   -2.9754    0.0000 N   0  0  0  0  0  0  0  0  0  0  0  0
    9.3722    1.5246    0.0000 N   0  0  0  0  0  0  0  0  0  0  0  0
   13.7023   -4.9754    0.0000 N   0  0  0  0  0  0  0  0  0  0  0  0
    8.7650    3.9905    0.0000 N   0  0  0  0  0  0  0  0  0  0  0  0
   15.4343   -5.9754    0.0000 N   0  0  0  0  0  0  0  0  0  0  0  0
    7.6096    6.3707    0.0000 N   0  0  0  0  0  0  0  0  0  0  0  0
   12.6183    2.1800    0.0000 N   0  0  0  0  0  0  0  0  0  0  0  0
    4.1760   -6.4754    0.0000 C   0  0  2  0  0  0  0  0  0  0  0  0
    3.3100   -5.9754    0.0000 C   0  0  1  0  0  0  0  0  0  0  0  0
    5.0420   -5.9754    0.0000 C   0  0  0  0  0  0  0  0  0  0  0  0
    5.0420   -4.9754    0.0000 C   0  0  1  0  0  0  0  0  0  0  0  0
    3.3100   -4.9754    0.0000 C   0  0  2  0  0  0  0  0  0  0  0  0
    5.9080   -3.4754    0.0000 C   0  0  2  0  0  0  0  0  0  0  0  0
    5.0420   -2.9754    0.0000 C   0  0  2  0  0  0  0  0  0  0  0  0
    5.0420   -6.9754    0.0000 C   0  0  0  0  0  0  0  0  0  0  0  0
    5.0420   -1.9754    0.0000 C   0  0  1  0  0  0  0  0  0  0  0  0
    6.7741   -2.9754    0.0000 C   0  0  1  0  0  0  0  0  0  0  0  0
    5.9080   -1.4754    0.0000 C   0  0  1  0  0  0  0  0  0  0  0  0
    2.4439   -4.4754    0.0000 C   0  0  0  0  0  0  0  0  0  0  0  0
    5.9080   -0.4754    0.0000 C   0  0  0  0  0  0  0  0  0  0  0  0
    8.5061   -2.9754    0.0000 C   0  0  0  0  0  0  0  0  0  0  0  0
    8.5061   -1.9754    0.0000 C   0  0  0  0  0  0  0  0  0  0  0  0
    9.3721   -3.4754    0.0000 C   0  0  0  0  0  0  0  0  0  0  0  0
    9.3722   -1.4754    0.0000 C   0  0  0  0  0  0  0  0  0  0  0  0
   10.2382   -2.9754    0.0000 C   0  0  0  0  0  0  0  0  0  0  0  0
   10.2382   -1.9754    0.0000 C   0  0  0  0  0  0  0  0  0  0  0  0
   11.1042   -1.4754    0.0000 C   0  0  2  0  0  0  0  0  0  0  0  0
   11.9702   -1.9754    0.0000 C   0  0  0  0  0  0  0  0  0  0  0  0
    7.6401   -0.4754    0.0000 C   0  0  0  0  0  0  0  0  0  0  0  0
   10.2382   -4.9754    0.0000 C   0  0  0  0  0  0  0  0  0  0  0  0
   10.2382    0.0246    0.0000 C   0  0  0  0  0  0  0  0  0  0  0  0
   12.8362   -3.4754    0.0000 C   0  0  2  0  0  0  0  0  0  0  0  0
   10.2382    1.0246    0.0000 C   0  0  2  0  0  0  0  0  0  0  0  0
    8.5061    0.0246    0.0000 C   0  0  0  0  0  0  0  0  0  0  0  0
    6.7741    0.0246    0.0000 C   0  0  0  0  0  0  0  0  0  0  0  0
   11.1042   -4.4754    0.0000 C   0  0  0  0  0  0  0  0  0  0  0  0
   10.2382   -5.9754    0.0000 C   0  0  0  0  0  0  0  0  0  0  0  0
    7.6401    2.5246    0.0000 C   0  0  1  0  0  0  0  0  0  0  0  0
    8.5061    3.0246    0.0000 C   0  0  2  0  0  0  0  0  0  0  0  0
    7.6401    1.5246    0.0000 C   0  0  0  0  0  0  0  0  0  0  0  0
   12.8362   -6.4754    0.0000 C   0  0  2  0  0  0  0  0  0  0  0  0
   11.9702   -5.9754    0.0000 C   0  0  0  0  0  0  0  0  0  0  0  0
   13.7023   -5.9754    0.0000 C   0  0  1  0  0  0  0  0  0  0  0  0
    8.5061    1.0246    0.0000 C   0  0  0  0  0  0  0  0  0  0  0  0
    6.7741    1.0246    0.0000 C   0  0  0  0  0  0  0  0  0  0  0  0
   11.9702   -4.9754    0.0000 C   0  0  0  0  0  0  0  0  0  0  0  0
   11.1042   -6.4754    0.0000 C   0  0  0  0  0  0  0  0  0  0  0  0
   13.7023   -2.9754    0.0000 C   0  0  0  0  0  0  0  0  0  0  0  0
   12.8362   -4.4754    0.0000 C   0  0  0  0  0  0  0  0  0  0  0  0
   10.9453    1.7317    0.0000 C   0  0  0  0  0  0  0  0  0  0  0  0
    9.3722    2.5246    0.0000 C   0  0  0  0  0  0  0  0  0  0  0  0
    8.3167    5.6636    0.0000 C   0  0  2  0  0  0  0  0  0  0  0  0
   14.5683   -6.4754    0.0000 C   0  0  0  0  0  0  0  0  0  0  0  0
    9.2826    5.9224    0.0000 C   0  0  0  0  0  0  0  0  0  0  0  0
   14.5683   -3.4754    0.0000 C   0  0  0  0  0  0  0  0  0  0  0  0
    8.0579    4.6976    0.0000 C   0  0  0  0  0  0  0  0  0  0  0  0
    9.5414    6.8883    0.0000 C   0  0  0  0  0  0  0  0  0  0  0  0
   13.7023   -1.9754    0.0000 C   0  0  0  0  0  0  0  0  0  0  0  0
   15.4343   -2.9754    0.0000 C   0  0  0  0  0  0  0  0  0  0  0  0
   15.4343   -4.9754    0.0000 C   0  0  1  0  0  0  0  0  0  0  0  0
   16.3003   -3.4754    0.0000 C   0  0  0  0  0  0  0  0  0  0  0  0
   16.3003   -4.4754    0.0000 C   0  0  0  0  0  0  0  0  0  0  0  0
   11.9112    1.4729    0.0000 C   0  0  0  0  0  0  0  0  0  0  0  0
   15.4343   -1.9754    0.0000 C   0  0  0  0  0  0  0  0  0  0  0  0
   14.5683   -1.4754    0.0000 C   0  0  0  0  0  0  0  0  0  0  0  0
   10.5073    7.1471    0.0000 C   0  0  0  0  0  0  0  0  0  0  0  0
    8.8343    7.5954    0.0000 C   0  0  0  0  0  0  0  0  0  0  0  0
   17.1664   -2.9754    0.0000 C   0  0  0  0  0  0  0  0  0  0  0  0
   17.1664   -4.9754    0.0000 C   0  0  0  0  0  0  0  0  0  0  0  0
   14.7945   -4.2069    0.0000 C   0  0  0  0  0  0  0  0  0  0  0  0
    7.8684    7.3366    0.0000 C   0  0  0  0  0  0  0  0  0  0  0  0
   18.0324   -4.4754    0.0000 C   0  0  0  0  0  0  0  0  0  0  0  0
   18.0324   -3.4754    0.0000 C   0  0  0  0  0  0  0  0  0  0  0  0
    3.1495   -6.5743    0.0000 H   0  0  0  0  0  0  0  0  0  0  0  0
    5.2541   -6.5580    0.0000 H   0  0  0  0  0  0  0  0  0  0  0  0
    5.6526   -5.8677    0.0000 H   0  0  0  0  0  0  0  0  0  0  0  0
    5.0420   -4.3554    0.0000 H   0  0  0  0  0  0  0  0  0  0  0  0
    3.3100   -4.3554    0.0000 H   0  0  0  0  0  0  0  0  0  0  0  0
    6.4450   -3.7854    0.0000 H   0  0  0  0  0  0  0  0  0  0  0  0
    5.0420   -3.5954    0.0000 H   0  0  0  0  0  0  0  0  0  0  0  0
    4.7320   -7.5123    0.0000 H   0  0  0  0  0  0  0  0  0  0  0  0
    5.5790   -7.2854    0.0000 H   0  0  0  0  0  0  0  0  0  0  0  0
    5.3520   -6.4385    0.0000 H   0  0  0  0  0  0  0  0  0  0  0  0
    5.0420   -1.3554    0.0000 H   0  0  0  0  0  0  0  0  0  0  0  0
    7.3110   -2.6654    0.0000 H   0  0  0  0  0  0  0  0  0  0  0  0
    6.4450   -1.1654    0.0000 H   0  0  0  0  0  0  0  0  0  0  0  0
    3.3100   -7.5954    0.0000 H   0  0  0  0  0  0  0  0  0  0  0  0
    2.6900   -6.9754    0.0000 H   0  0  0  0  0  0  0  0  0  0  0  0
    2.7539   -3.9385    0.0000 H   0  0  0  0  0  0  0  0  0  0  0  0
    1.9070   -4.1654    0.0000 H   0  0  0  0  0  0  0  0  0  0  0  0
    2.1339   -5.0123    0.0000 H   0  0  0  0  0  0  0  0  0  0  0  0
    2.0000   -5.4384    0.0000 H   0  0  0  0  0  0  0  0  0  0  0  0
    6.5186   -0.5831    0.0000 H   0  0  0  0  0  0  0  0  0  0  0  0
    6.1201    0.1072    0.0000 H   0  0  0  0  0  0  0  0  0  0  0  0
    3.6391   -3.1654    0.0000 H   0  0  0  0  0  0  0  0  0  0  0  0
    3.6391   -1.7854    0.0000 H   0  0  0  0  0  0  0  0  0  0  0  0
    5.0420    0.6446    0.0000 H   0  0  0  0  0  0  0  0  0  0  0  0
    9.3722   -0.8554    0.0000 H   0  0  0  0  0  0  0  0  0  0  0  0
   10.7751   -3.2854    0.0000 H   0  0  0  0  0  0  0  0  0  0  0  0
   11.8403   -1.0504    0.0000 H   0  0  0  0  0  0  0  0  0  0  0  0
   11.6411   -0.1654    0.0000 H   0  0  0  0  0  0  0  0  0  0  0  0
   11.4333   -3.2854    0.0000 H   0  0  0  0  0  0  0  0  0  0  0  0
   12.9633   -2.6350    0.0000 H   0  0  0  0  0  0  0  0  0  0  0  0
   10.8371    1.1851    0.0000 H   0  0  0  0  0  0  0  0  0  0  0  0
    6.2371   -0.2854    0.0000 H   0  0  0  0  0  0  0  0  0  0  0  0
    9.7012   -6.2854    0.0000 H   0  0  0  0  0  0  0  0  0  0  0  0
    8.3457    3.6235    0.0000 H   0  0  0  0  0  0  0  0  0  0  0  0
    7.0412    2.6851    0.0000 H   0  0  0  0  0  0  0  0  0  0  0  0
   12.9967   -7.0743    0.0000 H   0  0  0  0  0  0  0  0  0  0  0  0
   13.7023   -6.8254    0.0000 H   0  0  0  0  0  0  0  0  0  0  0  0
    9.0431    1.3346    0.0000 H   0  0  0  0  0  0  0  0  0  0  0  0
    6.2372    1.3346    0.0000 H   0  0  0  0  0  0  0  0  0  0  0  0
   12.5071   -4.6654    0.0000 H   0  0  0  0  0  0  0  0  0  0  0  0
   11.1042   -7.0954    0.0000 H   0  0  0  0  0  0  0  0  0  0  0  0
    9.4044    0.9054    0.0000 H   0  0  0  0  0  0  0  0  0  0  0  0
   11.2073    2.2936    0.0000 H   0  0  0  0  0  0  0  0  0  0  0  0
   10.4374    2.0873    0.0000 H   0  0  0  0  0  0  0  0  0  0  0  0
   14.2392   -4.6654    0.0000 H   0  0  0  0  0  0  0  0  0  0  0  0
    9.3638    4.1510    0.0000 H   0  0  0  0  0  0  0  0  0  0  0  0
    8.4771    6.2624    0.0000 H   0  0  0  0  0  0  0  0  0  0  0  0
    9.3366    5.3047    0.0000 H   0  0  0  0  0  0  0  0  0  0  0  0
    9.9002    5.8683    0.0000 H   0  0  0  0  0  0  0  0  0  0  0  0
   14.5683   -4.0954    0.0000 H   0  0  0  0  0  0  0  0  0  0  0  0
    9.7019    7.4872    0.0000 H   0  0  0  0  0  0  0  0  0  0  0  0
   13.1653   -1.6654    0.0000 H   0  0  0  0  0  0  0  0  0  0  0  0
   14.8525   -4.7612    0.0000 H   0  0  0  0  0  0  0  0  0  0  0  0
   15.9712   -6.2854    0.0000 H   0  0  0  0  0  0  0  0  0  0  0  0
    6.3341    3.0712    0.0000 H   0  0  0  0  0  0  0  0  0  0  0  0
   11.7960   -7.4358    0.0000 H   0  0  0  0  0  0  0  0  0  0  0  0
   14.5683   -0.8554    0.0000 H   0  0  0  0  0  0  0  0  0  0  0  0
    7.0107    6.2102    0.0000 H   0  0  0  0  0  0  0  0  0  0  0  0
   10.6678    6.5482    0.0000 H   0  0  0  0  0  0  0  0  0  0  0  0
   11.1062    7.3076    0.0000 H   0  0  0  0  0  0  0  0  0  0  0  0
   10.3469    7.7460    0.0000 H   0  0  0  0  0  0  0  0  0  0  0  0
    9.2727    8.0338    0.0000 H   0  0  0  0  0  0  0  0  0  0  0  0
    8.3959    8.0338    0.0000 H   0  0  0  0  0  0  0  0  0  0  0  0
    8.3959    7.1570    0.0000 H   0  0  0  0  0  0  0  0  0  0  0  0
   17.1664   -5.5954    0.0000 H   0  0  0  0  0  0  0  0  0  0  0  0
    8.4673    7.1761    0.0000 H   0  0  0  0  0  0  0  0  0  0  0  0
    8.0289    7.9355    0.0000 H   0  0  0  0  0  0  0  0  0  0  0  0
    7.2695    7.4970    0.0000 H   0  0  0  0  0  0  0  0  0  0  0  0
   13.2172    2.0195    0.0000 H   0  0  0  0  0  0  0  0  0  0  0  0
   12.4579    2.7789    0.0000 H   0  0  0  0  0  0  0  0  0  0  0  0
   18.5693   -3.1654    0.0000 H   0  0  0  0  0  0  0  0  0  0  0  0
   16.3004   -0.8554    0.0000 H   0  0  0  0  0  0  0  0  0  0  0  0
   17.7033   -1.6654    0.0000 H   0  0  0  0  0  0  0  0  0  0  0  0
   14.7434   -2.7921    0.0000 H   0  0  0  0  0  0  0  0  0  0  0  0
   19.4354   -4.6654    0.0000 H   0  0  0  0  0  0  0  0  0  0  0  0
  1 62  1  0  0  0  0
  2 64  1  0  0  0  0
  3 39  1  0  0  0  0
  3 40  1  0  0  0  0
 39  4  1  1  0  0  0
 41  4  1  6  0  0  0
  5 45  1  0  0  0  0
  5 46  1  0  0  0  0
 37  6  1  6  0  0  0
  6120  1  0  0  0  0
 42  7  1  1  0  0  0
  7123  1  0  0  0  0
 45  8  1  1  0  0  0
  8 49  1  0  0  0  0
 44  9  1  6  0  0  0
  9124  1  0  0  0  0
 10 48  1  0  0  0  0
 10125  1  0  0  0  0
 11 50  1  0  0  0  0
 11 57  1  0  0  0  0
 12 51  1  0  0  0  0
 12 58  1  0  0  0  0
 13 56  2  0  0  0  0
 14 59  2  0  0  0  0
 66 15  1  1  0  0  0
 15156  1  0  0  0  0
 69 16  1  6  0  0  0
 16157  1  0  0  0  0
 17 77  2  0  0  0  0
 18 79  2  0  0  0  0
 19 81  2  0  0  0  0
 20 84  2  0  0  0  0
 21 92  1  0  0  0  0
 21173  1  0  0  0  0
 22 91  2  0  0  0  0
 23 96  1  0  0  0  0
 23174  1  0  0  0  0
 24 98  1  0  0  0  0
 24175  1  0  0  0  0
 25 98  2  0  0  0  0
 26100  1  0  0  0  0
 26176  1  0  0  0  0
 36 27  1  6  0  0  0
 27115  1  0  0  0  0
 27116  1  0  0  0  0
 28 55  1  0  0  0  0
 28 59  1  0  0  0  0
 28129  1  0  0  0  0
 29 56  1  0  0  0  0
 29 60  1  0  0  0  0
 29130  1  0  0  0  0
 30 61  1  0  0  0  0
 30 79  1  0  0  0  0
 30143  1  0  0  0  0
 31 71  1  0  0  0  0
 31 77  1  0  0  0  0
 31146  1  0  0  0  0
 67 32  1  1  0  0  0
 32 84  1  0  0  0  0
 32147  1  0  0  0  0
 33 81  1  0  0  0  0
 33 88  1  0  0  0  0
 33155  1  0  0  0  0
 80 34  1  6  0  0  0
 34 99  1  0  0  0  0
 34159  1  0  0  0  0
 35 91  1  0  0  0  0
 35170  1  0  0  0  0
 35171  1  0  0  0  0
 36 37  1  0  0  0  0
 36 38  1  0  0  0  0
 36 43  1  0  0  0  0
 37 40  1  0  0  0  0
 37102  1  0  0  0  0
 38 39  1  0  0  0  0
 38103  1  0  0  0  0
 38104  1  0  0  0  0
 39105  1  0  0  0  0
 40 47  1  6  0  0  0
 40106  1  0  0  0  0
 41 42  1  0  0  0  0
 41 45  1  0  0  0  0
 41107  1  0  0  0  0
 42 44  1  0  0  0  0
 42108  1  0  0  0  0
 43109  1  0  0  0  0
 43110  1  0  0  0  0
 43111  1  0  0  0  0
 44 46  1  0  0  0  0
 44112  1  0  0  0  0
 45113  1  0  0  0  0
 46 48  1  1  0  0  0
 46114  1  0  0  0  0
 47117  1  0  0  0  0
 47118  1  0  0  0  0
 47119  1  0  0  0  0
 48121  1  0  0  0  0
 48122  1  0  0  0  0
 49 50  2  0  0  0  0
 49 51  1  0  0  0  0
 50 52  1  0  0  0  0
 51 53  2  0  0  0  0
 52 54  2  0  0  0  0
 52126  1  0  0  0  0
 53 54  1  0  0  0  0
 53127  1  0  0  0  0
 54 55  1  0  0  0  0
 55 56  1  0  0  0  0
 55128  1  6  0  0  0
 57 62  2  0  0  0  0
 57 63  1  0  0  0  0
 58 64  2  0  0  0  0
 58 65  1  0  0  0  0
 59 61  1  0  0  0  0
 60 76  1  0  0  0  0
 60 77  1  0  0  0  0
 60131  1  1  0  0  0
 61 78  1  1  0  0  0
 61132  1  0  0  0  0
 62 72  1  0  0  0  0
 63 73  2  0  0  0  0
 63133  1  0  0  0  0
 64 74  1  0  0  0  0
 65 75  2  0  0  0  0
 65134  1  0  0  0  0
 66 67  1  0  0  0  0
 66 68  1  0  0  0  0
 66136  1  0  0  0  0
 67 79  1  0  0  0  0
 67135  1  0  0  0  0
 68 72  2  0  0  0  0
 68 73  1  0  0  0  0
 69 70  1  0  0  0  0
 69 71  1  0  0  0  0
 69137  1  0  0  0  0
 70 74  2  0  0  0  0
 70 75  1  0  0  0  0
 71 81  1  0  0  0  0
 71138  1  1  0  0  0
 72139  1  0  0  0  0
 73140  1  0  0  0  0
 74141  1  0  0  0  0
 75142  1  0  0  0  0
 76 83  2  0  0  0  0
 76 86  1  0  0  0  0
 78 91  1  0  0  0  0
 78144  1  0  0  0  0
 78145  1  0  0  0  0
 80 82  1  0  0  0  0
 80 84  1  0  0  0  0
 80148  1  0  0  0  0
 82 85  1  0  0  0  0
 82149  1  0  0  0  0
 82150  1  0  0  0  0
 83 87  1  0  0  0  0
 83151  1  0  0  0  0
 85 94  1  0  0  0  0
 85 95  1  0  0  0  0
 85152  1  0  0  0  0
 86 93  2  0  0  0  0
 86153  1  0  0  0  0
 87 89  1  0  0  0  0
 87 92  2  0  0  0  0
 88 90  1  0  0  0  0
 88 98  1  6  0  0  0
 88154  1  0  0  0  0
 89 90  2  0  0  0  0
 89 96  1  0  0  0  0
 90 97  1  0  0  0  0
 92 93  1  0  0  0  0
 93158  1  0  0  0  0
 94160  1  0  0  0  0
 94161  1  0  0  0  0
 94162  1  0  0  0  0
 95163  1  0  0  0  0
 95164  1  0  0  0  0
 95165  1  0  0  0  0
 96101  2  0  0  0  0
 97100  2  0  0  0  0
 97166  1  0  0  0  0
 99167  1  0  0  0  0
 99168  1  0  0  0  0
 99169  1  0  0  0  0
100101  1  0  0  0  0
101172  1  0  0  0  0
M  END
> <PUBCHEM_COMPOUND_CID>
14969

> <PUBCHEM_COMPOUND_CANONICALIZED>
1

> <PUBCHEM_CACTVS_COMPLEXITY>
2960

> <PUBCHEM_CACTVS_HBOND_ACCEPTOR>
26

> <PUBCHEM_CACTVS_HBOND_DONOR>
19

> <PUBCHEM_CACTVS_ROTATABLE_BOND>
13

> <PUBCHEM_CACTVS_SUBSKEYS>
AAADcfB//gAGAAAAAAAAAAAAAAAAAAAAAAA0aMGDAAAAAAABVAAAHgIQCAAADb7xmCcyDoLABgCIAiHSGACCCAAgJUAIiIGOj4gfdz+H9zu2eCrn9hWfuAf9/P/OoAADKAAYSABAAAZQADCQAAAAAAAAAA==

> <PUBCHEM_IUPAC_INCHI>
InChI=1S/C66H75Cl2N9O24/c1-23(2)12-34(71-5)58(88)76-49-51(83)26-7-10-38(32(67)14-26)97-40-16-28-17-41(55(40)101-65-56(54(86)53(85)42(22-78)99-65)100-44-21-66(4,70)57(87)24(3)96-44)98-39-11-8-27(15-33(39)68)52(84)50-63(93)75-48(64(94)95)31-18-29(79)19-37(81)45(31)30-13-25(6-9-36(30)80)46(60(90)77-50)74-61(91)47(28)73-59(89)35(20-43(69)82)72-62(49)92/h6-11,13-19,23-24,34-35,42,44,46-54,56-57,65,71,78-81,83-87H,12,20-22,70H2,1-5H3,(H2,69,82)(H,72,92)(H,73,89)(H,74,91)(H,75,93)(H,76,88)(H,77,90)(H,94,95)/t24-,34+,35-,42+,44-,46+,47+,48-,49+,50-,51+,52+,53+,54-,56+,57+,65-,66-/m0/s1

> <PUBCHEM_IUPAC_INCHIKEY>
MYPYJXKWCTUITO-LYRMYLQWSA-N

> <PUBCHEM_XLOGP3_AA>
-2.6

> <PUBCHEM_EXACT_MASS>
1447.43

> <PUBCHEM_MOLECULAR_FORMULA>
C66H75Cl2N9O24

> <PUBCHEM_MOLECULAR_WEIGHT>
1449.265

> <PUBCHEM_OPENEYE_CAN_SMILES>
CC1C(C(CC(O1)OC2C(C(C(OC2OC3=C4C=C5C=C3OC6=C(C=C(C=C6)C(C(C(=O)NC(C(=O)NC5C(=O)NC7C8=CC(=C(C=C8)O)C9=C(C=C(C=C9C(NC(=O)C(C(C1=CC(=C(O4)C=C1)Cl)O)NC7=O)C(=O)O)O)O)CC(=O)N)NC(=O)C(CC(C)C)NC)O)Cl)CO)O)O)(C)N)O

> <PUBCHEM_OPENEYE_ISO_SMILES>
C[C@H]1[C@H]([C@@](C[C@@H](O1)O[C@@H]2[C@H]([C@@H]([C@H](O[C@H]2OC3=C4C=C5C=C3OC6=C(C=C(C=C6)[C@H]([C@H](C(=O)N[C@H](C(=O)N[C@H]5C(=O)N[C@@H]7C8=CC(=C(C=C8)O)C9=C(C=C(C=C9[C@H](NC(=O)[C@H]([C@@H](C1=CC(=C(O4)C=C1)Cl)O)NC7=O)C(=O)O)O)O)CC(=O)N)NC(=O)[C@@H](CC(C)C)NC)O)Cl)CO)O)O)(C)N)O

> <PUBCHEM_CACTVS_TPSA>
531

> <PUBCHEM_MONOISOTOPIC_WEIGHT>
1447.43

> <PUBCHEM_TOTAL_CHARGE>
0

> <PUBCHEM_HEAVY_ATOM_COUNT>
101

> <PUBCHEM_ATOM_DEF_STEREO_COUNT>
18

> <PUBCHEM_ATOM_UDEF_STEREO_COUNT>
0

> <PUBCHEM_BOND_DEF_STEREO_COUNT>
0

> <PUBCHEM_BOND_UDEF_STEREO_COUNT>
0

> <PUBCHEM_ISOTOPIC_ATOM_COUNT>
0

> <PUBCHEM_COMPONENT_COUNT>
1

> <PUBCHEM_CACTVS_TAUTO_COUNT>
970

> <PUBCHEM_COORDINATE_TYPE>
1
5
255

> <PUBCHEM_BONDANNOTATIONS>
100  101  8
66  15  5
69  16  6
36  27  6
67  32  5
80  34  6
39  4  5
41  4  6
40  47  6
46  48  5
49  50  8
49  51  8
50  52  8
51  53  8
52  54  8
53  54  8
55  128  6
57  62  8
57  63  8
58  64  8
58  65  8
37  6  6
60  131  5
61  78  5
62  72  8
63  73  8
64  74  8
65  75  8
68  72  8
68  73  8
42  7  5
70  74  8
70  75  8
71  138  5
76  83  8
76  86  8
45  8  5
83  87  8
86  93  8
87  92  8
88  98  6
89  90  8
89  96  8
44  9  6
90  97  8
92  93  8
96  101  8
97  100  8

$$$$
